Circuit: * C:\Users\nikol\Aalborg Universitet\Mikkel Stenkjær Hansen - 6. semester\P6\spice\testAfAmpSwitch.asc

Direct Newton iteration failed to find .op point.  (Use ".option noopiter" to skip.)
Starting Gmin stepping
Gmin = 10
Gmin = 1.07374
Gmin = 0.115292
Gmin = 0.0123794
Gmin = 0.00132923
Gmin = 0.000142725
Gmin = 1.5325e-005
Gmin = 1.6455e-006
vernier = 0.5
vernier = 0.25
vernier = 0.125
Gmin = 4.31359e-007
vernier = 0.0625
vernier = 0.03125
vernier = 0.015625
vernier = 0.0078125
vernier = 0.00390625
vernier = 0.00195313
vernier = 0.000976563
vernier = 0.000488281
Gmin = 0
Gmin stepping failed

Starting source stepping with srcstepmethod=0
Source Step = 3.0303%
Source Step = 33.3333%
Source Step = 63.6364%
Source Step = 93.9394%
Source stepping succeeded in finding the operating point.


Date: Fri May 06 09:01:50 2022
Total elapsed time: 1.991 seconds.

tnom = 27
temp = 27
method = modified trap
totiter = 139585
traniter = 137810
tranpoints = 65553
accept = 44708
rejected = 20845
matrix size = 35
fillins = 15
solver = Normal
Matrix Compiler1: 3.89 KB object code size  1.7/0.9/[0.9]
Matrix Compiler2: off  [0.5]/0.6/0.8

